Version 4
SHEET 1 1044 680
WIRE 448 -192 -80 -192
WIRE 192 -144 -80 -144
WIRE 576 -112 544 -112
WIRE 720 -112 608 -112
WIRE 256 -96 -80 -96
WIRE 544 -64 544 -112
WIRE 544 -64 384 -64
WIRE 576 -64 544 -64
WIRE 624 -64 576 -64
WIRE 64 -48 -80 -48
WIRE 128 -48 64 -48
WIRE 320 -48 128 -48
WIRE 768 -32 720 -32
WIRE 864 -32 800 -32
WIRE 64 -16 64 -48
WIRE 128 -16 128 -48
WIRE 192 -16 192 -144
WIRE 256 -16 256 -96
WIRE 320 -16 320 -48
WIRE 384 -16 384 -64
WIRE 448 -16 448 -192
WIRE 688 0 640 0
WIRE 720 0 720 -32
WIRE 720 0 688 0
WIRE 768 0 720 0
WIRE 64 32 64 16
WIRE 64 32 -80 32
WIRE 576 32 576 -64
WIRE 688 32 688 0
WIRE -384 48 -496 48
WIRE -320 48 -352 48
WIRE 64 64 64 32
WIRE 128 64 128 16
WIRE 192 64 192 16
WIRE 256 64 256 16
WIRE 320 64 320 16
WIRE 384 64 384 16
WIRE 448 64 448 16
WIRE -320 96 -320 48
WIRE -320 96 -400 96
WIRE 576 96 576 64
WIRE 688 96 688 64
WIRE -384 144 -496 144
WIRE -320 144 -320 96
WIRE -320 144 -352 144
WIRE 576 208 576 176
WIRE 688 208 688 176
WIRE 576 272 576 240
WIRE 640 272 640 0
WIRE 640 272 576 272
WIRE 448 288 448 256
WIRE 512 288 448 288
WIRE -384 304 -496 304
WIRE 64 304 64 256
WIRE 128 304 128 256
WIRE 192 304 192 256
WIRE 256 304 256 256
WIRE 320 304 320 256
WIRE 384 304 384 256
WIRE 448 304 448 288
WIRE 512 320 512 288
WIRE 64 368 64 336
WIRE 64 368 -80 368
WIRE 256 368 256 336
WIRE 256 368 64 368
WIRE 528 368 448 368
WIRE 192 416 192 336
WIRE 192 416 -80 416
WIRE 384 432 384 336
WIRE 688 432 688 240
WIRE 688 432 384 432
WIRE 752 432 688 432
WIRE 320 464 320 336
WIRE 320 464 -80 464
WIRE 752 480 752 432
WIRE 832 480 752 480
WIRE 128 512 128 336
WIRE 128 512 -80 512
FLAG -496 144 AWG1
IOPIN -496 144 BiDir
FLAG -496 304 AWG2
IOPIN -496 304 BiDir
FLAG -80 32 VCC
IOPIN -80 32 Out
FLAG 512 320 0
FLAG -400 96 JP1
IOPIN -400 96 BiDir
FLAG 624 -64 JP2
IOPIN 624 -64 BiDir
FLAG -80 -96 JP1
IOPIN -80 -96 BiDir
FLAG -80 -144 JP7
IOPIN -80 -144 BiDir
FLAG -496 48 AINH
IOPIN -496 48 BiDir
FLAG 720 -112 BINH
IOPIN 720 -112 BiDir
FLAG 832 480 JP3
IOPIN 832 480 BiDir
FLAG 864 -32 CINH
IOPIN 864 -32 BiDir
FLAG -80 -48 JP5
IOPIN -80 -48 BiDir
FLAG 528 368 JP6
IOPIN 528 368 BiDir
FLAG -80 368 JP5
IOPIN -80 368 BiDir
FLAG -80 416 JP1
IOPIN -80 416 BiDir
FLAG -80 464 JP7
IOPIN -80 464 BiDir
FLAG -80 512 JP8
IOPIN -80 512 BiDir
FLAG -80 -192 JP8
IOPIN -80 -192 BiDir
FLAG 768 0 JP4
IOPIN 768 0 BiDir
SYMBOL cp-dip14 272 160 R0
WINDOW 3 -93 -2 VCenter 2
SYMATTR Value 74HC74
SYMATTR InstName U1
SYMBOL cross_point 64 320 R90
SYMATTR InstName BL7
SYMBOL cross_point 128 320 R90
SYMATTR InstName BL8
SYMBOL cross_point 192 320 R90
SYMATTR InstName BL9
SYMBOL cross_point 256 320 R90
SYMATTR InstName BL10
SYMBOL cross_point 320 320 R90
SYMATTR InstName BL11
SYMBOL cross_point 384 320 R90
SYMATTR InstName BL12
SYMBOL cross_point 448 320 R90
SYMATTR InstName BL13
SYMBOL cross_point 448 0 R270
SYMATTR InstName TL13
SYMBOL cross_point 384 0 R270
SYMATTR InstName TL12
SYMBOL cross_point 320 0 R270
SYMATTR InstName TL11
SYMBOL cross_point 256 0 R270
SYMATTR InstName TL10
SYMBOL cross_point 192 0 R270
SYMATTR InstName TL9
SYMBOL cross_point 128 0 R270
SYMATTR InstName TL8
SYMBOL cross_point 64 0 R270
SYMATTR InstName TL7
SYMBOL cross_point -368 144 R0
SYMATTR InstName X1
SYMBOL cross_point -368 304 R0
SYMATTR InstName X2
SYMBOL cross_point -368 48 R0
SYMATTR InstName X3
SYMBOL cross_point 592 -112 M0
SYMATTR InstName X4
SYMBOL cross_point 784 -32 M0
SYMATTR InstName X5
SYMBOL res 560 80 R0
SYMATTR InstName R1
SYMATTR Value 22k
SYMBOL res 672 80 R0
SYMATTR InstName R2
SYMATTR Value 22k
SYMBOL cross_point 576 48 R270
SYMATTR InstName TL1
SYMBOL cross_point 688 48 R270
SYMATTR InstName TL2
SYMBOL cross_point 576 224 R90
SYMATTR InstName BL1
SYMBOL cross_point 688 224 R90
SYMATTR InstName BL2
