Version 4
SHEET 1 880 680
WIRE 192 -160 -112 -160
WIRE 384 -160 192 -160
WIRE 128 -96 -112 -96
WIRE 320 -96 128 -96
WIRE 64 -48 -80 -48
WIRE 64 -16 64 -48
WIRE 128 -16 128 -96
WIRE 192 -16 192 -160
WIRE 320 -16 320 -96
WIRE 384 -16 384 -160
WIRE 64 32 64 16
WIRE 64 32 -80 32
WIRE 64 64 64 32
WIRE 128 64 128 16
WIRE 192 64 192 16
WIRE 256 64 256 16
WIRE 320 64 320 16
WIRE 384 64 384 16
WIRE 448 64 448 16
WIRE -112 272 -224 272
WIRE -48 272 -80 272
WIRE 448 288 448 256
WIRE 512 288 448 288
WIRE 64 304 64 256
WIRE 128 304 128 256
WIRE 192 304 192 256
WIRE 256 304 256 256
WIRE 320 304 320 256
WIRE 384 304 384 256
WIRE 448 304 448 288
WIRE -48 320 -48 272
WIRE -48 320 -128 320
WIRE 512 320 512 288
WIRE -112 368 -224 368
WIRE -48 368 -48 320
WIRE -48 368 -80 368
WIRE 64 368 64 336
WIRE 64 368 -48 368
WIRE 256 368 256 336
WIRE 256 368 64 368
WIRE 448 368 448 336
WIRE 528 368 448 368
WIRE -112 432 -224 432
WIRE -48 432 -80 432
WIRE 560 432 528 432
WIRE 704 432 592 432
WIRE -48 480 -48 432
WIRE -48 480 -128 480
WIRE 192 480 192 336
WIRE 528 480 528 432
WIRE 528 480 192 480
WIRE 608 480 528 480
WIRE -112 528 -224 528
WIRE -48 528 -48 480
WIRE -48 528 -80 528
WIRE 128 528 128 336
WIRE 128 528 -48 528
WIRE 320 528 320 336
WIRE 320 528 128 528
FLAG -224 368 AWG1
IOPIN -224 368 BiDir
FLAG -224 528 AWG2
IOPIN -224 528 BiDir
FLAG -80 32 VCC
IOPIN -80 32 Out
FLAG 512 320 0
FLAG -128 320 JP1
IOPIN -128 320 BiDir
FLAG -128 480 JP2
IOPIN -128 480 BiDir
FLAG -112 -96 JP1
IOPIN -112 -96 BiDir
FLAG -112 -160 JP2
IOPIN -112 -160 BiDir
FLAG -224 272 AINH
IOPIN -224 272 BiDir
FLAG -224 432 BINH
IOPIN -224 432 BiDir
FLAG 608 480 JP3
IOPIN 608 480 BiDir
FLAG 704 432 CINH
IOPIN 704 432 BiDir
FLAG -80 -48 JP5
IOPIN -80 -48 BiDir
FLAG 528 368 JP6
IOPIN 528 368 BiDir
SYMBOL cp-dip14 272 160 R0
WINDOW 3 -93 -2 VCenter 2
SYMATTR InstName U1
SYMATTR Value 74HC86
SYMBOL cross_point 64 320 R90
SYMATTR InstName BL7
SYMBOL cross_point 128 320 R90
SYMATTR InstName BL8
SYMBOL cross_point 192 320 R90
SYMATTR InstName BL9
SYMBOL cross_point 256 320 R90
SYMATTR InstName BL10
SYMBOL cross_point 320 320 R90
SYMATTR InstName BL11
SYMBOL cross_point 384 320 R90
SYMATTR InstName BL12
SYMBOL cross_point 448 320 R90
SYMATTR InstName BL13
SYMBOL cross_point 448 0 R270
SYMATTR InstName TL13
SYMBOL cross_point 384 0 R270
SYMATTR InstName TL12
SYMBOL cross_point 320 0 R270
SYMATTR InstName TL11
SYMBOL cross_point 256 0 R270
SYMATTR InstName TL10
SYMBOL cross_point 192 0 R270
SYMATTR InstName TL9
SYMBOL cross_point 128 0 R270
SYMATTR InstName TL8
SYMBOL cross_point 64 0 R270
SYMATTR InstName TL7
SYMBOL cross_point -96 368 R0
SYMATTR InstName X1
SYMBOL cross_point -96 528 R0
SYMATTR InstName X2
SYMBOL cross_point -96 272 R0
SYMATTR InstName X3
SYMBOL cross_point -96 432 R0
SYMATTR InstName X4
SYMBOL cross_point 576 432 M0
SYMATTR InstName X5
