Version 4
SHEET 1 880 680
WIRE 592 -32 208 -32
WIRE 272 16 16 16
WIRE 208 64 208 -32
WIRE 272 64 272 16
WIRE 16 112 16 16
WIRE 592 112 592 -32
WIRE 592 256 592 192
WIRE 688 256 592 256
WIRE 688 288 688 256
WIRE -128 304 -256 304
WIRE 16 304 16 192
WIRE 16 304 -48 304
WIRE 208 304 208 256
WIRE 208 304 16 304
WIRE 272 336 272 256
WIRE -256 352 -256 304
WIRE 592 352 592 256
WIRE 272 480 272 416
WIRE 336 480 336 256
WIRE 592 480 592 432
WIRE 592 480 336 480
WIRE -256 496 -256 432
FLAG 688 288 0
FLAG 272 480 0
FLAG -256 496 0
FLAG 16 16 out
FLAG -256 304 in
SYMBOL res 0 96 R0
SYMATTR InstName R1
SYMATTR Value 10k
SYMBOL res -32 288 R90
WINDOW 0 0 56 VBottom 2
WINDOW 3 32 56 VTop 2
SYMATTR InstName R2
SYMATTR Value 10k
SYMBOL voltage 592 336 R0
SYMATTR InstName V1
SYMATTR Value 5
SYMBOL voltage 592 96 R0
SYMATTR InstName V2
SYMATTR Value 5
SYMBOL res 256 320 R0
SYMATTR InstName R3
SYMATTR Value 10k
SYMBOL voltage -256 336 R0
WINDOW 123 0 0 Left 0
WINDOW 39 0 0 Left 0
SYMATTR InstName V3
SYMATTR Value SINE(0 1 500)
SYMBOL Dip-op27 352 160 R0
SYMATTR InstName XOP27
SYMATTR Value ""
TEXT -136 376 Left 2 !.tran 0 5m 0 startup
