Version 4
SHEET 1 1612 680
WIRE 256 0 192 0
WIRE 528 0 464 0
WIRE 256 16 192 16
WIRE 528 16 464 16
WIRE 368 48 320 48
WIRE 656 48 592 48
WIRE 160 80 128 80
WIRE 272 96 272 64
WIRE 544 96 544 64
WIRE 256 160 192 160
WIRE 528 160 464 160
WIRE 256 176 192 176
WIRE 528 176 464 176
WIRE 368 208 320 208
WIRE 656 208 592 208
WIRE 272 256 272 224
WIRE 544 256 544 224
FLAG 368 48 Y1
FLAG 368 208 Y2
FLAG 656 48 Y3
FLAG 656 208 Y4
FLAG 192 0 A1
FLAG 192 160 A2
FLAG 464 0 A3
FLAG 464 160 A4
FLAG 192 16 B1
FLAG 192 176 B2
FLAG 464 16 B3
FLAG 464 176 B4
FLAG 272 96 VSS
FLAG 544 96 VSS
FLAG 544 256 VSS
FLAG 272 256 VSS
FLAG 128 80 VDD
SYMBOL Digital\\and 288 -32 R0
WINDOW 3 -8 36 Left 2
SYMATTR Value Vhigh=5
SYMATTR InstName A1
SYMBOL Digital\\and 288 128 R0
WINDOW 3 -8 36 Left 2
SYMATTR Value Vhigh=5
SYMATTR InstName A2
SYMBOL Digital\\and 560 -32 R0
WINDOW 3 -8 36 Left 2
SYMATTR Value Vhigh=5
SYMATTR InstName A3
SYMBOL Digital\\and 560 128 R0
WINDOW 3 -8 36 Left 2
SYMATTR Value Vhigh=5
SYMATTR InstName A4
